Program Version,EnergyPlus, Version 8.8.0-7c3bbe4830, YMD=2020.09.22 11:15
